
     RDKit          3D

 55 58  0  0  0  0  0  0  0  0999 V2000
   53.5330   39.1030   68.8640 C   0  0  0  0  0  0  0  0  0  0  0  0
   54.6820   39.1020   69.6440 N   0  0  0  0  0  0  0  0  0  0  0  0
   53.4380   39.9610   67.7870 O   0  0  0  0  0  0  0  0  0  0  0  0
   47.9690   38.3040   66.5470 Cl  0  0  0  0  0  0  0  0  0  0  0  0
   52.4790   38.3230   69.1170 N   0  0  0  0  0  0  0  0  0  0  0  0
   53.2440   41.4700   72.7790 O   0  0  0  0  0  0  0  0  0  0  0  0
   51.6510   38.7060   68.1300 C   0  0  0  0  0  0  0  0  0  0  0  0
   55.1350   41.1550   71.4910 N   0  0  0  0  0  0  0  0  0  0  0  0
   50.3470   38.2430   67.9000 C   0  0  0  0  0  0  0  0  0  0  0  0
   49.6240   38.8100   66.8350 C   0  0  0  0  0  0  0  0  0  0  0  0
   50.2040   39.7990   66.0130 C   0  0  0  0  0  0  0  0  0  0  0  0
   51.5170   40.2420   66.2540 C   0  0  0  0  0  0  0  0  0  0  0  0
   52.2000   39.6680   67.3390 C   0  0  0  0  0  0  0  0  0  0  0  0
   55.8340   39.9800   69.3230 C   0  0  0  0  0  0  0  0  0  0  0  0
   55.8050   41.2920   70.1610 C   0  0  0  0  0  0  0  0  0  0  0  0
   55.7630   40.2260   72.4530 C   0  0  0  0  0  0  0  0  0  0  0  0
   55.8710   38.7650   71.9150 C   0  0  0  0  0  0  0  0  0  0  0  0
   54.7210   38.3550   70.9360 C   0  0  0  0  0  0  0  0  0  0  0  0
   53.8650   41.7080   71.7490 C   0  0  0  0  0  0  0  0  0  0  0  0
   53.2670   42.6270   70.7270 C   0  0  0  0  0  0  0  0  0  0  0  0
   53.7700   43.9330   70.5070 C   0  0  0  0  0  0  0  0  0  0  0  0
   53.1100   44.7880   69.6230 C   0  0  0  0  0  0  0  0  0  0  0  0
   51.9570   44.3580   68.9390 C   0  0  0  0  0  0  0  0  0  0  0  0
   51.4850   43.0430   69.1200 C   0  0  0  0  0  0  0  0  0  0  0  0
   52.1350   42.1880   70.0140 C   0  0  0  0  0  0  0  0  0  0  0  0
   50.2540   42.5720   68.3730 C   0  0  0  0  0  0  0  0  0  0  0  0
   57.1230   40.7650   72.9420 C   0  0  0  0  0  0  0  0  0  0  0  0
   49.9150   37.4810   68.5430 H   0  0  0  0  0  0  0  0  0  0  0  0
   49.6170   40.2430   65.2030 H   0  0  0  0  0  0  0  0  0  0  0  0
   51.9800   41.0040   65.6310 H   0  0  0  0  0  0  0  0  0  0  0  0
   56.7830   39.4590   69.4940 H   0  0  0  0  0  0  0  0  0  0  0  0
   55.8340   40.2380   68.2530 H   0  0  0  0  0  0  0  0  0  0  0  0
   55.3070   42.0410   69.5490 H   0  0  0  0  0  0  0  0  0  0  0  0
   56.8360   41.6500   70.3000 H   0  0  0  0  0  0  0  0  0  0  0  0
   55.1220   40.1690   73.3420 H   0  0  0  0  0  0  0  0  0  0  0  0
   56.8410   38.6030   71.4360 H   0  0  0  0  0  0  0  0  0  0  0  0
   55.8490   38.0870   72.7670 H   0  0  0  0  0  0  0  0  0  0  0  0
   53.7610   38.4970   71.4550 H   0  0  0  0  0  0  0  0  0  0  0  0
   54.7990   37.2740   70.7280 H   0  0  0  0  0  0  0  0  0  0  0  0
   53.4800   45.8000   69.4560 H   0  0  0  0  0  0  0  0  0  0  0  0
   51.4370   45.0250   68.2560 H   0  0  0  0  0  0  0  0  0  0  0  0
   51.7660   41.1760   70.1610 H   0  0  0  0  0  0  0  0  0  0  0  0
   57.5320   40.1360   73.7430 H   0  0  0  0  0  0  0  0  0  0  0  0
   57.0150   41.7760   73.3500 H   0  0  0  0  0  0  0  0  0  0  0  0
   57.8640   40.7920   72.1320 H   0  0  0  0  0  0  0  0  0  0  0  0
   50.0770   41.4960   68.4940 H   0  0  0  0  0  0  0  0  0  0  0  0
   50.3450   42.7690   67.2980 H   0  0  0  0  0  0  0  0  0  0  0  0
   49.3620   43.0960   68.7290 H   0  0  0  0  0  0  0  0  0  0  0  0
   55.0290   44.3840   71.1870 C   0  0  0  0  0  0  0  0  0  0  0  0
   54.9710   45.8340   71.4120 N   0  0  0  0  0  0  0  0  0  0  0  0
   55.1290   43.8720   72.1440 H   0  0  0  0  0  0  0  0  0  0  0  0
   55.8870   44.1480   70.5570 H   0  0  0  0  0  0  0  0  0  0  0  0
   54.8790   46.3090   70.5260 H   0  0  0  0  0  0  0  0  0  0  0  0
   54.1770   46.0530   71.9950 H   0  0  0  0  0  0  0  0  0  0  0  0
   55.8180   46.1380   71.8690 H   0  0  0  0  0  0  0  0  0  0  0  0
 21 20  1  0
 21 22  1  0
 21 49  1  0
 49 50  1  0
 49 51  1  0
 49 52  1  0
 53 50  1  0
 54 50  1  0
 55 50  1  0
  2  1  1  0
  3  1  1  0
  5  1  1  0
  7  5  1  0
  9  7  1  0
 10  4  1  0
 10  9  1  0
 11 10  1  0
 12 11  1  0
 13 12  1  0
 13  7  1  0
 13  3  1  0
 14  2  1  0
 15 14  1  0
 15  8  1  0
 16  8  1  0
 17 16  1  0
 18  2  1  0
 18 17  1  0
 19  6  1  0
 19  8  1  0
 20 19  1  0
 23 22  1  0
 24 23  1  0
 25 24  1  0
 25 20  1  0
 26 24  1  0
 27 16  1  0
 28  9  1  0
 29 11  1  0
 30 12  1  0
 31 14  1  0
 32 14  1  0
 33 15  1  0
 34 15  1  0
 35 16  1  0
 36 17  1  0
 37 17  1  0
 38 18  1  0
 39 18  1  0
 40 22  1  0
 41 23  1  0
 42 25  1  0
 43 27  1  0
 44 27  1  0
 45 27  1  0
 46 26  1  0
 47 26  1  0
 48 26  1  0
M  CHG  1  50   1
M  END
$$$$
