
     RDKit          3D

 58 62  0  0  0  0  0  0  0  0999 V2000
   53.4540   39.1570   68.6410 C   0  0  0  0  0  0  0  0  0  0  0  0
   54.5830   39.1540   69.4520 N   0  0  0  0  0  0  0  0  0  0  0  0
   53.3370   40.0980   67.6380 O   0  0  0  0  0  0  0  0  0  0  0  0
   48.0040   38.2530   66.1050 Cl  0  0  0  0  0  0  0  0  0  0  0  0
   52.4420   38.3010   68.7980 N   0  0  0  0  0  0  0  0  0  0  0  0
   52.9640   41.2470   72.6920 O   0  0  0  0  0  0  0  0  0  0  0  0
   51.6170   38.7210   67.8230 C   0  0  0  0  0  0  0  0  0  0  0  0
   54.8980   41.0980   71.4400 N   0  0  0  0  0  0  0  0  0  0  0  0
   50.3480   38.2080   67.5170 C   0  0  0  0  0  0  0  0  0  0  0  0
   49.6200   38.8220   66.4830 C   0  0  0  0  0  0  0  0  0  0  0  0
   50.1610   39.9100   65.7640 C   0  0  0  0  0  0  0  0  0  0  0  0
   51.4400   40.4020   66.0790 C   0  0  0  0  0  0  0  0  0  0  0  0
   52.1280   39.7760   67.1310 C   0  0  0  0  0  0  0  0  0  0  0  0
   55.7020   40.0990   69.2210 C   0  0  0  0  0  0  0  0  0  0  0  0
   55.5950   41.3500   70.1400 C   0  0  0  0  0  0  0  0  0  0  0  0
   55.5420   40.1350   72.3560 C   0  0  0  0  0  0  0  0  0  0  0  0
   55.7270   38.7180   71.7290 C   0  0  0  0  0  0  0  0  0  0  0  0
   54.6210   38.3250   70.6930 C   0  0  0  0  0  0  0  0  0  0  0  0
   53.5990   41.5780   71.6980 C   0  0  0  0  0  0  0  0  0  0  0  0
   52.9870   42.5360   70.7210 C   0  0  0  0  0  0  0  0  0  0  0  0
   53.4380   43.8740   70.6000 C   0  0  0  0  0  0  0  0  0  0  0  0
   52.7630   44.7570   69.7550 C   0  0  0  0  0  0  0  0  0  0  0  0
   51.6470   44.3250   69.0130 C   0  0  0  0  0  0  0  0  0  0  0  0
   51.2290   42.9830   69.0950 C   0  0  0  0  0  0  0  0  0  0  0  0
   51.8930   42.0980   69.9490 C   0  0  0  0  0  0  0  0  0  0  0  0
   50.0390   42.5100   68.2850 C   0  0  0  0  0  0  0  0  0  0  0  0
   56.8650   40.6970   72.9180 C   0  0  0  0  0  0  0  0  0  0  0  0
   49.9450   37.3710   68.0810 H   0  0  0  0  0  0  0  0  0  0  0  0
   49.5690   40.3870   64.9780 H   0  0  0  0  0  0  0  0  0  0  0  0
   51.8730   41.2390   65.5360 H   0  0  0  0  0  0  0  0  0  0  0  0
   56.6690   39.6080   69.3840 H   0  0  0  0  0  0  0  0  0  0  0  0
   55.7180   40.4270   68.1700 H   0  0  0  0  0  0  0  0  0  0  0  0
   55.0790   42.1170   69.5650 H   0  0  0  0  0  0  0  0  0  0  0  0
   56.6050   41.7420   70.3320 H   0  0  0  0  0  0  0  0  0  0  0  0
   54.8820   39.9920   73.2220 H   0  0  0  0  0  0  0  0  0  0  0  0
   56.7150   38.6290   71.2670 H   0  0  0  0  0  0  0  0  0  0  0  0
   55.7150   37.9850   72.5330 H   0  0  0  0  0  0  0  0  0  0  0  0
   53.6430   38.3920   71.1930 H   0  0  0  0  0  0  0  0  0  0  0  0
   54.7520   37.2650   70.4180 H   0  0  0  0  0  0  0  0  0  0  0  0
   53.0920   45.7930   69.6640 H   0  0  0  0  0  0  0  0  0  0  0  0
   51.1160   45.0130   68.3600 H   0  0  0  0  0  0  0  0  0  0  0  0
   51.5660   41.0640   70.0200 H   0  0  0  0  0  0  0  0  0  0  0  0
   57.2800   40.0340   73.6880 H   0  0  0  0  0  0  0  0  0  0  0  0
   56.7020   41.6730   73.3870 H   0  0  0  0  0  0  0  0  0  0  0  0
   57.6230   40.8090   72.1320 H   0  0  0  0  0  0  0  0  0  0  0  0
   49.9070   41.4220   68.3310 H   0  0  0  0  0  0  0  0  0  0  0  0
   50.1490   42.7810   67.2280 H   0  0  0  0  0  0  0  0  0  0  0  0
   49.1160   42.9710   68.6500 H   0  0  0  0  0  0  0  0  0  0  0  0
   54.6580   44.3320   71.3430 C   0  0  0  0  0  0  0  0  0  0  0  0
   55.3750   45.5180   71.1020 C   0  0  0  0  0  0  0  0  0  0  0  0
   56.4020   45.5710   71.9720 C   0  0  0  0  0  0  0  0  0  0  0  0
   56.3520   44.4720   72.7390 O   0  0  0  0  0  0  0  0  0  0  0  0
   55.2360   43.7030   72.3270 N   0  0  0  0  0  0  0  0  0  0  0  0
   57.4270   46.6720   72.0660 C   0  0  0  0  0  0  0  0  0  0  0  0
   55.1420   46.2580   70.3500 H   0  0  0  0  0  0  0  0  0  0  0  0
   57.0780   47.4350   72.7620 H   0  0  0  0  0  0  0  0  0  0  0  0
   58.3710   46.2600   72.4220 H   0  0  0  0  0  0  0  0  0  0  0  0
   57.5730   47.1180   71.0820 H   0  0  0  0  0  0  0  0  0  0  0  0
 21 20  1  0
 21 22  1  0
 21 49  1  0
 49 50  1  0
 49 53  1  0
 50 51  1  0
 50 55  1  0
 51 52  1  0
 51 54  1  0
 54 56  1  0
 54 57  1  0
 54 58  1  0
 53 52  1  0
  2  1  1  0
  3  1  1  0
  5  1  1  0
  7  5  1  0
  9  7  1  0
 10  4  1  0
 10  9  1  0
 11 10  1  0
 12 11  1  0
 13 12  1  0
 13  7  1  0
 13  3  1  0
 14  2  1  0
 15 14  1  0
 15  8  1  0
 16  8  1  0
 17 16  1  0
 18  2  1  0
 18 17  1  0
 19  6  1  0
 19  8  1  0
 20 19  1  0
 23 22  1  0
 24 23  1  0
 25 24  1  0
 25 20  1  0
 26 24  1  0
 27 16  1  0
 28  9  1  0
 29 11  1  0
 30 12  1  0
 31 14  1  0
 32 14  1  0
 33 15  1  0
 34 15  1  0
 35 16  1  0
 36 17  1  0
 37 17  1  0
 38 18  1  0
 39 18  1  0
 40 22  1  0
 41 23  1  0
 42 25  1  0
 43 27  1  0
 44 27  1  0
 45 27  1  0
 46 26  1  0
 47 26  1  0
 48 26  1  0
M  END
$$$$
